8
Lattice="7.9947614001294625 0.0 0.0 0.0 5.65315 0.0 0.0 0.0 3.9973807000647317" Properties=species:S:1:pos:R:3 pbc="T T T"
Ga       0.00000000       0.00000000       0.00000000
As       7.99476140       4.23986250       1.99869035
Ga       5.99607105       2.82657500       1.99869035
As       1.99869035       1.41328750       0.00000000
Ga       1.99869035       2.82657500       1.99869035
As       5.99607105       1.41328750       0.00000000
Ga       3.99738070       0.00000000       0.00000000
As       3.99738070       4.23986250       1.99869035
